# RIV package for  SEAWAT, generated by Flopy.
       100         0
       100         0 # stress period 1
         1        11         1   4.0000000E+00   1.0000000E+01   3.0000000E+00
         1        11         2   3.9696970E+00   1.0000000E+01   2.9696970E+00
         1        11         3   3.9393940E+00   1.0000000E+01   2.9393940E+00
         1        11         4   3.9090910E+00   1.0000000E+01   2.9090910E+00
         1        11         5   3.8787880E+00   1.0000000E+01   2.8787880E+00
         1        11         6   3.8484848E+00   1.0000000E+01   2.8484848E+00
         1        11         7   3.8181818E+00   1.0000000E+01   2.8181818E+00
         1        11         8   3.7878788E+00   1.0000000E+01   2.7878788E+00
         1        11         9   3.7575758E+00   1.0000000E+01   2.7575758E+00
         1        11        10   3.7272727E+00   1.0000000E+01   2.7272727E+00
         1        11        11   3.6969697E+00   1.0000000E+01   2.6969697E+00
         1        11        12   3.6666667E+00   1.0000000E+01   2.6666667E+00
         1        11        13   3.6363637E+00   1.0000000E+01   2.6363637E+00
         1        11        14   3.6060605E+00   1.0000000E+01   2.6060605E+00
         1        11        15   3.5757575E+00   1.0000000E+01   2.5757575E+00
         1        11        16   3.5454545E+00   1.0000000E+01   2.5454545E+00
         1        11        17   3.5151515E+00   1.0000000E+01   2.5151515E+00
         1        11        18   3.4848485E+00   1.0000000E+01   2.4848485E+00
         1        11        19   3.4545455E+00   1.0000000E+01   2.4545455E+00
         1        11        20   3.4242425E+00   1.0000000E+01   2.4242425E+00
         1        11        21   3.3939395E+00   1.0000000E+01   2.3939395E+00
         1        11        22   3.3636363E+00   1.0000000E+01   2.3636363E+00
         1        11        23   3.3333333E+00   1.0000000E+01   2.3333333E+00
         1        11        24   3.3030303E+00   1.0000000E+01   2.3030303E+00
         1        11        25   3.2727273E+00   1.0000000E+01   2.2727273E+00
         1        11        26   3.2424242E+00   1.0000000E+01   2.2424242E+00
         1        11        27   3.2121212E+00   1.0000000E+01   2.2121212E+00
         1        11        28   3.1818182E+00   1.0000000E+01   2.1818182E+00
         1        11        29   3.1515152E+00   1.0000000E+01   2.1515152E+00
         1        11        30   3.1212120E+00   1.0000000E+01   2.1212120E+00
         1        11        31   3.0909090E+00   1.0000000E+01   2.0909090E+00
         1        11        32   3.0606060E+00   1.0000000E+01   2.0606060E+00
         1        11        33   3.0303030E+00   1.0000000E+01   2.0303030E+00
         1        11        34   3.0000000E+00   1.0000000E+01   2.0000000E+00
         1        11        35   2.9696970E+00   1.0000000E+01   1.9696970E+00
         1        11        36   2.9393940E+00   1.0000000E+01   1.9393940E+00
         1        11        37   2.9090910E+00   1.0000000E+01   1.9090909E+00
         1        11        38   2.8787880E+00   1.0000000E+01   1.8787879E+00
         1        11        39   2.8484848E+00   1.0000000E+01   1.8484849E+00
         1        11        40   2.8181818E+00   1.0000000E+01   1.8181819E+00
         1        11        41   2.7878788E+00   1.0000000E+01   1.7878788E+00
         1        11        42   2.7575758E+00   1.0000000E+01   1.7575758E+00
         1        11        43   2.7272727E+00   1.0000000E+01   1.7272727E+00
         1        11        44   2.6969697E+00   1.0000000E+01   1.6969697E+00
         1        11        45   2.6666667E+00   1.0000000E+01   1.6666666E+00
         1        11        46   2.6363637E+00   1.0000000E+01   1.6363636E+00
         1        11        47   2.6060605E+00   1.0000000E+01   1.6060606E+00
         1        11        48   2.5757575E+00   1.0000000E+01   1.5757576E+00
         1        11        49   2.5454545E+00   1.0000000E+01   1.5454545E+00
         1        11        50   2.5151515E+00   1.0000000E+01   1.5151515E+00
         1        11        51   2.4848485E+00   1.0000000E+01   1.4848485E+00
         1        11        52   2.4545455E+00   1.0000000E+01   1.4545455E+00
         1        11        53   2.4242425E+00   1.0000000E+01   1.4242424E+00
         1        11        54   2.3939395E+00   1.0000000E+01   1.3939394E+00
         1        11        55   2.3636363E+00   1.0000000E+01   1.3636364E+00
         1        11        56   2.3333333E+00   1.0000000E+01   1.3333334E+00
         1        11        57   2.3030303E+00   1.0000000E+01   1.3030303E+00
         1        11        58   2.2727273E+00   1.0000000E+01   1.2727273E+00
         1        11        59   2.2424242E+00   1.0000000E+01   1.2424242E+00
         1        11        60   2.2121212E+00   1.0000000E+01   1.2121212E+00
         1        11        61   2.1818182E+00   1.0000000E+01   1.1818181E+00
         1        11        62   2.1515152E+00   1.0000000E+01   1.1515151E+00
         1        11        63   2.1212120E+00   1.0000000E+01   1.1212121E+00
         1        11        64   2.0909090E+00   1.0000000E+01   1.0909091E+00
         1        11        65   2.0606060E+00   1.0000000E+01   1.0606060E+00
         1        11        66   2.0303030E+00   1.0000000E+01   1.0303030E+00
         1        11        67   2.0000000E+00   1.0000000E+01   1.0000000E+00
         1        11        68   1.9696970E+00   1.0000000E+01   9.6969700E-01
         1        11        69   1.9393940E+00   1.0000000E+01   9.3939394E-01
         1        11        70   1.9090909E+00   1.0000000E+01   9.0909094E-01
         1        11        71   1.8787879E+00   1.0000000E+01   8.7878788E-01
         1        11        72   1.8484849E+00   1.0000000E+01   8.4848487E-01
         1        11        73   1.8181819E+00   1.0000000E+01   8.1818181E-01
         1        11        74   1.7878788E+00   1.0000000E+01   7.8787881E-01
         1        11        75   1.7575758E+00   1.0000000E+01   7.5757575E-01
         1        11        76   1.7272727E+00   1.0000000E+01   7.2727275E-01
         1        11        77   1.6969697E+00   1.0000000E+01   6.9696969E-01
         1        11        78   1.6666666E+00   1.0000000E+01   6.6666669E-01
         1        11        79   1.6363636E+00   1.0000000E+01   6.3636363E-01
         1        11        80   1.6060606E+00   1.0000000E+01   6.0606062E-01
         1        11        81   1.5757576E+00   1.0000000E+01   5.7575756E-01
         1        11        82   1.5454545E+00   1.0000000E+01   5.4545456E-01
         1        11        83   1.5151515E+00   1.0000000E+01   5.1515150E-01
         1        11        84   1.4848485E+00   1.0000000E+01   4.8484850E-01
         1        11        85   1.4545455E+00   1.0000000E+01   4.5454547E-01
         1        11        86   1.4242424E+00   1.0000000E+01   4.2424244E-01
         1        11        87   1.3939394E+00   1.0000000E+01   3.9393941E-01
         1        11        88   1.3636364E+00   1.0000000E+01   3.6363637E-01
         1        11        89   1.3333334E+00   1.0000000E+01   3.3333334E-01
         1        11        90   1.3030303E+00   1.0000000E+01   3.0303031E-01
         1        11        91   1.2727273E+00   1.0000000E+01   2.7272728E-01
         1        11        92   1.2424242E+00   1.0000000E+01   2.4242425E-01
         1        11        93   1.2121212E+00   1.0000000E+01   2.1212122E-01
         1        11        94   1.1818181E+00   1.0000000E+01   1.8181819E-01
         1        11        95   1.1515151E+00   1.0000000E+01   1.5151516E-01
         1        11        96   1.1212121E+00   1.0000000E+01   1.2121212E-01
         1        11        97   1.0909091E+00   1.0000000E+01   9.0909094E-02
         1        11        98   1.0606060E+00   1.0000000E+01   6.0606062E-02
         1        11        99   1.0303030E+00   1.0000000E+01   3.0303031E-02
         1        11       100   1.0000000E+00   1.0000000E+01   0.0000000E+00
       100         0 # stress period 2
         1        11         1   3.0000000E+00   1.0000000E+01   3.0000000E+00
         1        11         2   2.9696970E+00   1.0000000E+01   2.9696970E+00
         1        11         3   2.9393940E+00   1.0000000E+01   2.9393940E+00
         1        11         4   2.9090910E+00   1.0000000E+01   2.9090910E+00
         1        11         5   2.8787880E+00   1.0000000E+01   2.8787880E+00
         1        11         6   2.8484848E+00   1.0000000E+01   2.8484848E+00
         1        11         7   2.8181818E+00   1.0000000E+01   2.8181818E+00
         1        11         8   2.7878788E+00   1.0000000E+01   2.7878788E+00
         1        11         9   2.7575758E+00   1.0000000E+01   2.7575758E+00
         1        11        10   2.7272727E+00   1.0000000E+01   2.7272727E+00
         1        11        11   2.6969697E+00   1.0000000E+01   2.6969697E+00
         1        11        12   2.6666667E+00   1.0000000E+01   2.6666667E+00
         1        11        13   2.6363637E+00   1.0000000E+01   2.6363637E+00
         1        11        14   2.6060605E+00   1.0000000E+01   2.6060605E+00
         1        11        15   2.5757575E+00   1.0000000E+01   2.5757575E+00
         1        11        16   2.5454545E+00   1.0000000E+01   2.5454545E+00
         1        11        17   2.5151515E+00   1.0000000E+01   2.5151515E+00
         1        11        18   2.4848485E+00   1.0000000E+01   2.4848485E+00
         1        11        19   2.4545455E+00   1.0000000E+01   2.4545455E+00
         1        11        20   2.4242425E+00   1.0000000E+01   2.4242425E+00
         1        11        21   2.3939395E+00   1.0000000E+01   2.3939395E+00
         1        11        22   2.3636363E+00   1.0000000E+01   2.3636363E+00
         1        11        23   2.3333333E+00   1.0000000E+01   2.3333333E+00
         1        11        24   2.3030303E+00   1.0000000E+01   2.3030303E+00
         1        11        25   2.2727273E+00   1.0000000E+01   2.2727273E+00
         1        11        26   2.2424242E+00   1.0000000E+01   2.2424242E+00
         1        11        27   2.2121212E+00   1.0000000E+01   2.2121212E+00
         1        11        28   2.1818182E+00   1.0000000E+01   2.1818182E+00
         1        11        29   2.1515152E+00   1.0000000E+01   2.1515152E+00
         1        11        30   2.1212120E+00   1.0000000E+01   2.1212120E+00
         1        11        31   2.0909090E+00   1.0000000E+01   2.0909090E+00
         1        11        32   2.0606060E+00   1.0000000E+01   2.0606060E+00
         1        11        33   2.0303030E+00   1.0000000E+01   2.0303030E+00
         1        11        34   2.0000000E+00   1.0000000E+01   2.0000000E+00
         1        11        35   1.9696970E+00   1.0000000E+01   1.9696970E+00
         1        11        36   1.9393940E+00   1.0000000E+01   1.9393940E+00
         1        11        37   1.9090909E+00   1.0000000E+01   1.9090909E+00
         1        11        38   1.8787879E+00   1.0000000E+01   1.8787879E+00
         1        11        39   1.8484849E+00   1.0000000E+01   1.8484849E+00
         1        11        40   1.8181819E+00   1.0000000E+01   1.8181819E+00
         1        11        41   1.7878788E+00   1.0000000E+01   1.7878788E+00
         1        11        42   1.7575758E+00   1.0000000E+01   1.7575758E+00
         1        11        43   1.7272727E+00   1.0000000E+01   1.7272727E+00
         1        11        44   1.6969697E+00   1.0000000E+01   1.6969697E+00
         1        11        45   1.6666666E+00   1.0000000E+01   1.6666666E+00
         1        11        46   1.6363636E+00   1.0000000E+01   1.6363636E+00
         1        11        47   1.6060606E+00   1.0000000E+01   1.6060606E+00
         1        11        48   1.5757576E+00   1.0000000E+01   1.5757576E+00
         1        11        49   1.5454545E+00   1.0000000E+01   1.5454545E+00
         1        11        50   1.5151515E+00   1.0000000E+01   1.5151515E+00
         1        11        51   1.4848485E+00   1.0000000E+01   1.4848485E+00
         1        11        52   1.4545455E+00   1.0000000E+01   1.4545455E+00
         1        11        53   1.4242424E+00   1.0000000E+01   1.4242424E+00
         1        11        54   1.3939394E+00   1.0000000E+01   1.3939394E+00
         1        11        55   1.3636364E+00   1.0000000E+01   1.3636364E+00
         1        11        56   1.3333334E+00   1.0000000E+01   1.3333334E+00
         1        11        57   1.3030303E+00   1.0000000E+01   1.3030303E+00
         1        11        58   1.2727273E+00   1.0000000E+01   1.2727273E+00
         1        11        59   1.2424242E+00   1.0000000E+01   1.2424242E+00
         1        11        60   1.2121212E+00   1.0000000E+01   1.2121212E+00
         1        11        61   1.1818181E+00   1.0000000E+01   1.1818181E+00
         1        11        62   1.1515151E+00   1.0000000E+01   1.1515151E+00
         1        11        63   1.1212121E+00   1.0000000E+01   1.1212121E+00
         1        11        64   1.0909091E+00   1.0000000E+01   1.0909091E+00
         1        11        65   1.0606060E+00   1.0000000E+01   1.0606060E+00
         1        11        66   1.0303030E+00   1.0000000E+01   1.0303030E+00
         1        11        67   1.0000000E+00   1.0000000E+01   1.0000000E+00
         1        11        68   9.6969700E-01   1.0000000E+01   9.6969700E-01
         1        11        69   9.3939394E-01   1.0000000E+01   9.3939394E-01
         1        11        70   9.0909094E-01   1.0000000E+01   9.0909094E-01
         1        11        71   8.7878788E-01   1.0000000E+01   8.7878788E-01
         1        11        72   8.4848487E-01   1.0000000E+01   8.4848487E-01
         1        11        73   8.1818181E-01   1.0000000E+01   8.1818181E-01
         1        11        74   7.8787881E-01   1.0000000E+01   7.8787881E-01
         1        11        75   7.5757575E-01   1.0000000E+01   7.5757575E-01
         1        11        76   7.2727275E-01   1.0000000E+01   7.2727275E-01
         1        11        77   6.9696969E-01   1.0000000E+01   6.9696969E-01
         1        11        78   6.6666669E-01   1.0000000E+01   6.6666669E-01
         1        11        79   6.3636363E-01   1.0000000E+01   6.3636363E-01
         1        11        80   6.0606062E-01   1.0000000E+01   6.0606062E-01
         1        11        81   5.7575756E-01   1.0000000E+01   5.7575756E-01
         1        11        82   5.4545456E-01   1.0000000E+01   5.4545456E-01
         1        11        83   5.1515150E-01   1.0000000E+01   5.1515150E-01
         1        11        84   4.8484850E-01   1.0000000E+01   4.8484850E-01
         1        11        85   4.5454547E-01   1.0000000E+01   4.5454547E-01
         1        11        86   4.2424244E-01   1.0000000E+01   4.2424244E-01
         1        11        87   3.9393941E-01   1.0000000E+01   3.9393941E-01
         1        11        88   3.6363637E-01   1.0000000E+01   3.6363637E-01
         1        11        89   3.3333334E-01   1.0000000E+01   3.3333334E-01
         1        11        90   3.0303031E-01   1.0000000E+01   3.0303031E-01
         1        11        91   2.7272728E-01   1.0000000E+01   2.7272728E-01
         1        11        92   2.4242425E-01   1.0000000E+01   2.4242425E-01
         1        11        93   2.1212122E-01   1.0000000E+01   2.1212122E-01
         1        11        94   1.8181819E-01   1.0000000E+01   1.8181819E-01
         1        11        95   1.5151516E-01   1.0000000E+01   1.5151516E-01
         1        11        96   1.2121212E-01   1.0000000E+01   1.2121212E-01
         1        11        97   9.0909094E-02   1.0000000E+01   9.0909094E-02
         1        11        98   6.0606062E-02   1.0000000E+01   6.0606062E-02
         1        11        99   3.0303031E-02   1.0000000E+01   3.0303031E-02
         1        11       100   0.0000000E+00   1.0000000E+01   0.0000000E+00
       100         0 # stress period 3
         1        11         1   4.0000000E+00   1.0000000E+01   3.0000000E+00
         1        11         2   3.9696970E+00   1.0000000E+01   2.9696970E+00
         1        11         3   3.9393940E+00   1.0000000E+01   2.9393940E+00
         1        11         4   3.9090910E+00   1.0000000E+01   2.9090910E+00
         1        11         5   3.8787880E+00   1.0000000E+01   2.8787880E+00
         1        11         6   3.8484848E+00   1.0000000E+01   2.8484848E+00
         1        11         7   3.8181818E+00   1.0000000E+01   2.8181818E+00
         1        11         8   3.7878788E+00   1.0000000E+01   2.7878788E+00
         1        11         9   3.7575758E+00   1.0000000E+01   2.7575758E+00
         1        11        10   3.7272727E+00   1.0000000E+01   2.7272727E+00
         1        11        11   3.6969697E+00   1.0000000E+01   2.6969697E+00
         1        11        12   3.6666667E+00   1.0000000E+01   2.6666667E+00
         1        11        13   3.6363637E+00   1.0000000E+01   2.6363637E+00
         1        11        14   3.6060605E+00   1.0000000E+01   2.6060605E+00
         1        11        15   3.5757575E+00   1.0000000E+01   2.5757575E+00
         1        11        16   3.5454545E+00   1.0000000E+01   2.5454545E+00
         1        11        17   3.5151515E+00   1.0000000E+01   2.5151515E+00
         1        11        18   3.4848485E+00   1.0000000E+01   2.4848485E+00
         1        11        19   3.4545455E+00   1.0000000E+01   2.4545455E+00
         1        11        20   3.4242425E+00   1.0000000E+01   2.4242425E+00
         1        11        21   3.3939395E+00   1.0000000E+01   2.3939395E+00
         1        11        22   3.3636363E+00   1.0000000E+01   2.3636363E+00
         1        11        23   3.3333333E+00   1.0000000E+01   2.3333333E+00
         1        11        24   3.3030303E+00   1.0000000E+01   2.3030303E+00
         1        11        25   3.2727273E+00   1.0000000E+01   2.2727273E+00
         1        11        26   3.2424242E+00   1.0000000E+01   2.2424242E+00
         1        11        27   3.2121212E+00   1.0000000E+01   2.2121212E+00
         1        11        28   3.1818182E+00   1.0000000E+01   2.1818182E+00
         1        11        29   3.1515152E+00   1.0000000E+01   2.1515152E+00
         1        11        30   3.1212120E+00   1.0000000E+01   2.1212120E+00
         1        11        31   3.0909090E+00   1.0000000E+01   2.0909090E+00
         1        11        32   3.0606060E+00   1.0000000E+01   2.0606060E+00
         1        11        33   3.0303030E+00   1.0000000E+01   2.0303030E+00
         1        11        34   3.0000000E+00   1.0000000E+01   2.0000000E+00
         1        11        35   2.9696970E+00   1.0000000E+01   1.9696970E+00
         1        11        36   2.9393940E+00   1.0000000E+01   1.9393940E+00
         1        11        37   2.9090910E+00   1.0000000E+01   1.9090909E+00
         1        11        38   2.8787880E+00   1.0000000E+01   1.8787879E+00
         1        11        39   2.8484848E+00   1.0000000E+01   1.8484849E+00
         1        11        40   2.8181818E+00   1.0000000E+01   1.8181819E+00
         1        11        41   2.7878788E+00   1.0000000E+01   1.7878788E+00
         1        11        42   2.7575758E+00   1.0000000E+01   1.7575758E+00
         1        11        43   2.7272727E+00   1.0000000E+01   1.7272727E+00
         1        11        44   2.6969697E+00   1.0000000E+01   1.6969697E+00
         1        11        45   2.6666667E+00   1.0000000E+01   1.6666666E+00
         1        11        46   2.6363637E+00   1.0000000E+01   1.6363636E+00
         1        11        47   2.6060605E+00   1.0000000E+01   1.6060606E+00
         1        11        48   2.5757575E+00   1.0000000E+01   1.5757576E+00
         1        11        49   2.5454545E+00   1.0000000E+01   1.5454545E+00
         1        11        50   2.5151515E+00   1.0000000E+01   1.5151515E+00
         1        11        51   2.4848485E+00   1.0000000E+01   1.4848485E+00
         1        11        52   2.4545455E+00   1.0000000E+01   1.4545455E+00
         1        11        53   2.4242425E+00   1.0000000E+01   1.4242424E+00
         1        11        54   2.3939395E+00   1.0000000E+01   1.3939394E+00
         1        11        55   2.3636363E+00   1.0000000E+01   1.3636364E+00
         1        11        56   2.3333333E+00   1.0000000E+01   1.3333334E+00
         1        11        57   2.3030303E+00   1.0000000E+01   1.3030303E+00
         1        11        58   2.2727273E+00   1.0000000E+01   1.2727273E+00
         1        11        59   2.2424242E+00   1.0000000E+01   1.2424242E+00
         1        11        60   2.2121212E+00   1.0000000E+01   1.2121212E+00
         1        11        61   2.1818182E+00   1.0000000E+01   1.1818181E+00
         1        11        62   2.1515152E+00   1.0000000E+01   1.1515151E+00
         1        11        63   2.1212120E+00   1.0000000E+01   1.1212121E+00
         1        11        64   2.0909090E+00   1.0000000E+01   1.0909091E+00
         1        11        65   2.0606060E+00   1.0000000E+01   1.0606060E+00
         1        11        66   2.0303030E+00   1.0000000E+01   1.0303030E+00
         1        11        67   2.0000000E+00   1.0000000E+01   1.0000000E+00
         1        11        68   1.9696970E+00   1.0000000E+01   9.6969700E-01
         1        11        69   1.9393940E+00   1.0000000E+01   9.3939394E-01
         1        11        70   1.9090909E+00   1.0000000E+01   9.0909094E-01
         1        11        71   1.8787879E+00   1.0000000E+01   8.7878788E-01
         1        11        72   1.8484849E+00   1.0000000E+01   8.4848487E-01
         1        11        73   1.8181819E+00   1.0000000E+01   8.1818181E-01
         1        11        74   1.7878788E+00   1.0000000E+01   7.8787881E-01
         1        11        75   1.7575758E+00   1.0000000E+01   7.5757575E-01
         1        11        76   1.7272727E+00   1.0000000E+01   7.2727275E-01
         1        11        77   1.6969697E+00   1.0000000E+01   6.9696969E-01
         1        11        78   1.6666666E+00   1.0000000E+01   6.6666669E-01
         1        11        79   1.6363636E+00   1.0000000E+01   6.3636363E-01
         1        11        80   1.6060606E+00   1.0000000E+01   6.0606062E-01
         1        11        81   1.5757576E+00   1.0000000E+01   5.7575756E-01
         1        11        82   1.5454545E+00   1.0000000E+01   5.4545456E-01
         1        11        83   1.5151515E+00   1.0000000E+01   5.1515150E-01
         1        11        84   1.4848485E+00   1.0000000E+01   4.8484850E-01
         1        11        85   1.4545455E+00   1.0000000E+01   4.5454547E-01
         1        11        86   1.4242424E+00   1.0000000E+01   4.2424244E-01
         1        11        87   1.3939394E+00   1.0000000E+01   3.9393941E-01
         1        11        88   1.3636364E+00   1.0000000E+01   3.6363637E-01
         1        11        89   1.3333334E+00   1.0000000E+01   3.3333334E-01
         1        11        90   1.3030303E+00   1.0000000E+01   3.0303031E-01
         1        11        91   1.2727273E+00   1.0000000E+01   2.7272728E-01
         1        11        92   1.2424242E+00   1.0000000E+01   2.4242425E-01
         1        11        93   1.2121212E+00   1.0000000E+01   2.1212122E-01
         1        11        94   1.1818181E+00   1.0000000E+01   1.8181819E-01
         1        11        95   1.1515151E+00   1.0000000E+01   1.5151516E-01
         1        11        96   1.1212121E+00   1.0000000E+01   1.2121212E-01
         1        11        97   1.0909091E+00   1.0000000E+01   9.0909094E-02
         1        11        98   1.0606060E+00   1.0000000E+01   6.0606062E-02
         1        11        99   1.0303030E+00   1.0000000E+01   3.0303031E-02
         1        11       100   1.0000000E+00   1.0000000E+01   0.0000000E+00
       100         0 # stress period 4
         1        11         1   3.0000000E+00   1.0000000E+01   3.0000000E+00
         1        11         2   2.9696970E+00   1.0000000E+01   2.9696970E+00
         1        11         3   2.9393940E+00   1.0000000E+01   2.9393940E+00
         1        11         4   2.9090910E+00   1.0000000E+01   2.9090910E+00
         1        11         5   2.8787880E+00   1.0000000E+01   2.8787880E+00
         1        11         6   2.8484848E+00   1.0000000E+01   2.8484848E+00
         1        11         7   2.8181818E+00   1.0000000E+01   2.8181818E+00
         1        11         8   2.7878788E+00   1.0000000E+01   2.7878788E+00
         1        11         9   2.7575758E+00   1.0000000E+01   2.7575758E+00
         1        11        10   2.7272727E+00   1.0000000E+01   2.7272727E+00
         1        11        11   2.6969697E+00   1.0000000E+01   2.6969697E+00
         1        11        12   2.6666667E+00   1.0000000E+01   2.6666667E+00
         1        11        13   2.6363637E+00   1.0000000E+01   2.6363637E+00
         1        11        14   2.6060605E+00   1.0000000E+01   2.6060605E+00
         1        11        15   2.5757575E+00   1.0000000E+01   2.5757575E+00
         1        11        16   2.5454545E+00   1.0000000E+01   2.5454545E+00
         1        11        17   2.5151515E+00   1.0000000E+01   2.5151515E+00
         1        11        18   2.4848485E+00   1.0000000E+01   2.4848485E+00
         1        11        19   2.4545455E+00   1.0000000E+01   2.4545455E+00
         1        11        20   2.4242425E+00   1.0000000E+01   2.4242425E+00
         1        11        21   2.3939395E+00   1.0000000E+01   2.3939395E+00
         1        11        22   2.3636363E+00   1.0000000E+01   2.3636363E+00
         1        11        23   2.3333333E+00   1.0000000E+01   2.3333333E+00
         1        11        24   2.3030303E+00   1.0000000E+01   2.3030303E+00
         1        11        25   2.2727273E+00   1.0000000E+01   2.2727273E+00
         1        11        26   2.2424242E+00   1.0000000E+01   2.2424242E+00
         1        11        27   2.2121212E+00   1.0000000E+01   2.2121212E+00
         1        11        28   2.1818182E+00   1.0000000E+01   2.1818182E+00
         1        11        29   2.1515152E+00   1.0000000E+01   2.1515152E+00
         1        11        30   2.1212120E+00   1.0000000E+01   2.1212120E+00
         1        11        31   2.0909090E+00   1.0000000E+01   2.0909090E+00
         1        11        32   2.0606060E+00   1.0000000E+01   2.0606060E+00
         1        11        33   2.0303030E+00   1.0000000E+01   2.0303030E+00
         1        11        34   2.0000000E+00   1.0000000E+01   2.0000000E+00
         1        11        35   1.9696970E+00   1.0000000E+01   1.9696970E+00
         1        11        36   1.9393940E+00   1.0000000E+01   1.9393940E+00
         1        11        37   1.9090909E+00   1.0000000E+01   1.9090909E+00
         1        11        38   1.8787879E+00   1.0000000E+01   1.8787879E+00
         1        11        39   1.8484849E+00   1.0000000E+01   1.8484849E+00
         1        11        40   1.8181819E+00   1.0000000E+01   1.8181819E+00
         1        11        41   1.7878788E+00   1.0000000E+01   1.7878788E+00
         1        11        42   1.7575758E+00   1.0000000E+01   1.7575758E+00
         1        11        43   1.7272727E+00   1.0000000E+01   1.7272727E+00
         1        11        44   1.6969697E+00   1.0000000E+01   1.6969697E+00
         1        11        45   1.6666666E+00   1.0000000E+01   1.6666666E+00
         1        11        46   1.6363636E+00   1.0000000E+01   1.6363636E+00
         1        11        47   1.6060606E+00   1.0000000E+01   1.6060606E+00
         1        11        48   1.5757576E+00   1.0000000E+01   1.5757576E+00
         1        11        49   1.5454545E+00   1.0000000E+01   1.5454545E+00
         1        11        50   1.5151515E+00   1.0000000E+01   1.5151515E+00
         1        11        51   1.4848485E+00   1.0000000E+01   1.4848485E+00
         1        11        52   1.4545455E+00   1.0000000E+01   1.4545455E+00
         1        11        53   1.4242424E+00   1.0000000E+01   1.4242424E+00
         1        11        54   1.3939394E+00   1.0000000E+01   1.3939394E+00
         1        11        55   1.3636364E+00   1.0000000E+01   1.3636364E+00
         1        11        56   1.3333334E+00   1.0000000E+01   1.3333334E+00
         1        11        57   1.3030303E+00   1.0000000E+01   1.3030303E+00
         1        11        58   1.2727273E+00   1.0000000E+01   1.2727273E+00
         1        11        59   1.2424242E+00   1.0000000E+01   1.2424242E+00
         1        11        60   1.2121212E+00   1.0000000E+01   1.2121212E+00
         1        11        61   1.1818181E+00   1.0000000E+01   1.1818181E+00
         1        11        62   1.1515151E+00   1.0000000E+01   1.1515151E+00
         1        11        63   1.1212121E+00   1.0000000E+01   1.1212121E+00
         1        11        64   1.0909091E+00   1.0000000E+01   1.0909091E+00
         1        11        65   1.0606060E+00   1.0000000E+01   1.0606060E+00
         1        11        66   1.0303030E+00   1.0000000E+01   1.0303030E+00
         1        11        67   1.0000000E+00   1.0000000E+01   1.0000000E+00
         1        11        68   9.6969700E-01   1.0000000E+01   9.6969700E-01
         1        11        69   9.3939394E-01   1.0000000E+01   9.3939394E-01
         1        11        70   9.0909094E-01   1.0000000E+01   9.0909094E-01
         1        11        71   8.7878788E-01   1.0000000E+01   8.7878788E-01
         1        11        72   8.4848487E-01   1.0000000E+01   8.4848487E-01
         1        11        73   8.1818181E-01   1.0000000E+01   8.1818181E-01
         1        11        74   7.8787881E-01   1.0000000E+01   7.8787881E-01
         1        11        75   7.5757575E-01   1.0000000E+01   7.5757575E-01
         1        11        76   7.2727275E-01   1.0000000E+01   7.2727275E-01