# WEL package for  SEAWAT, generated by Flopy.
       104        53
       104         0 # stress period 1
         1         2        51   0.0000000E+00
         2         2        51   0.0000000E+00
         3         2        51   0.0000000E+00
         4         2        51   0.0000000E+00
         5         2        51   0.0000000E+00
         6         2        51   0.0000000E+00
         7         2        51   0.0000000E+00
         8         2        51   0.0000000E+00
         9         2        51   0.0000000E+00
        10         2        51   0.0000000E+00
        11         2        51   0.0000000E+00
        12         2        51   0.0000000E+00
        13         2        51   0.0000000E+00
        14         2        51   0.0000000E+00
        15         2        51   0.0000000E+00
        16         2        51   0.0000000E+00
        17         2        51   0.0000000E+00
        18         2        51   0.0000000E+00
        19         2        51   0.0000000E+00
        20         2        51   0.0000000E+00
        21         2        51   0.0000000E+00
        22         2        51   0.0000000E+00
        23         2        51   0.0000000E+00
        24         2        51   0.0000000E+00
        25         2        51   0.0000000E+00
        26         2        51   0.0000000E+00
         1        10        51   0.0000000E+00
         2        10        51   0.0000000E+00
         3        10        51   0.0000000E+00
         4        10        51   0.0000000E+00
         5        10        51   0.0000000E+00
         6        10        51   0.0000000E+00
         7        10        51   0.0000000E+00
         8        10        51   0.0000000E+00
         9        10        51   0.0000000E+00
        10        10        51   0.0000000E+00
        11        10        51   0.0000000E+00
        12        10        51   0.0000000E+00
        13        10        51   0.0000000E+00
        14        10        51   0.0000000E+00
        15        10        51   0.0000000E+00
        16        10        51   0.0000000E+00
        17        10        51   0.0000000E+00
        18        10        51   0.0000000E+00
        19        10        51   0.0000000E+00
        20        10        51   0.0000000E+00
        21        10        51   0.0000000E+00
        22        10        51   0.0000000E+00
        23        10        51   0.0000000E+00
        24        10        51   0.0000000E+00
        25        10        51   0.0000000E+00
        26        10        51   0.0000000E+00
         1         2        59   0.0000000E+00
         2         2        59   0.0000000E+00
         3         2        59   0.0000000E+00
         4         2        59   0.0000000E+00
         5         2        59   0.0000000E+00
         6         2        59   0.0000000E+00
         7         2        59   0.0000000E+00
         8         2        59   0.0000000E+00
         9         2        59   0.0000000E+00
        10         2        59   0.0000000E+00
        11         2        59   0.0000000E+00
        12         2        59   0.0000000E+00
        13         2        59   0.0000000E+00
        14         2        59   0.0000000E+00
        15         2        59   0.0000000E+00
        16         2        59   0.0000000E+00
        17         2        59   0.0000000E+00
        18         2        59   0.0000000E+00
        19         2        59   0.0000000E+00
        20         2        59   0.0000000E+00
        21         2        59   0.0000000E+00
        22         2        59   0.0000000E+00
        23         2        59   0.0000000E+00
        24         2        59   0.0000000E+00
        25         2        59   0.0000000E+00
        26         2        59   0.0000000E+00
         1        10        59   0.0000000E+00
         2        10        59   0.0000000E+00
         3        10        59   0.0000000E+00
         4        10        59   0.0000000E+00
         5        10        59   0.0000000E+00
         6        10        59   0.0000000E+00
         7        10        59   0.0000000E+00
         8        10        59   0.0000000E+00
         9        10        59   0.0000000E+00
        10        10        59   0.0000000E+00
        11        10        59   0.0000000E+00
        12        10        59   0.0000000E+00
        13        10        59   0.0000000E+00
        14        10        59   0.0000000E+00
        15        10        59   0.0000000E+00
        16        10        59   0.0000000E+00
        17        10        59   0.0000000E+00
        18        10        59   0.0000000E+00
        19        10        59   0.0000000E+00
        20        10        59   0.0000000E+00
        21        10        59   0.0000000E+00
        22        10        59   0.0000000E+00
        23        10        59   0.0000000E+00
        24        10        59   0.0000000E+00
        25        10        59   0.0000000E+00
        26        10        59   0.0000000E+00
       104         0 # stress period 2
         1         2        51  -0.0000000E+00
         2         2        51  -0.0000000E+00
         3         2        51  -0.0000000E+00
         4         2        51  -0.0000000E+00
         5         2        51  -0.0000000E+00
         6         2        51  -0.0000000E+00
         7         2        51  -0.0000000E+00
         8         2        51  -0.0000000E+00
         9         2        51  -0.0000000E+00
        10         2        51  -0.0000000E+00
        11         2        51  -0.0000000E+00
        12         2        51  -0.0000000E+00
        13         2        51  -0.0000000E+00
        14         2        51  -0.0000000E+00
        15         2        51  -0.0000000E+00
        16         2        51  -0.0000000E+00
        17         2        51  -0.0000000E+00
        18         2        51  -0.0000000E+00
        19         2        51  -0.0000000E+00
        20         2        51  -0.0000000E+00
        21         2        51  -0.0000000E+00
        22         2        51  -0.0000000E+00
        23         2        51  -0.0000000E+00
        24         2        51  -0.0000000E+00
        25         2        51  -0.0000000E+00
        26         2        51  -0.0000000E+00
         1        10        51  -0.0000000E+00
         2        10        51  -0.0000000E+00
         3        10        51  -0.0000000E+00
         4        10        51  -0.0000000E+00
         5        10        51  -0.0000000E+00
         6        10        51  -0.0000000E+00
         7        10        51  -0.0000000E+00
         8        10        51  -0.0000000E+00
         9        10        51  -0.0000000E+00
        10        10        51  -0.0000000E+00
        11        10        51  -0.0000000E+00
        12        10        51  -0.0000000E+00
        13        10        51  -0.0000000E+00
        14        10        51  -0.0000000E+00
        15        10        51  -0.0000000E+00
        16        10        51  -0.0000000E+00
        17        10        51  -0.0000000E+00
        18        10        51  -0.0000000E+00
        19        10        51  -0.0000000E+00
        20        10        51  -0.0000000E+00
        21        10        51  -0.0000000E+00
        22        10        51  -0.0000000E+00
        23        10        51  -0.0000000E+00
        24        10        51  -0.0000000E+00
        25        10        51  -0.0000000E+00
        26        10        51  -0.0000000E+00
         1         2        59  -0.0000000E+00
         2         2        59  -0.0000000E+00
         3         2        59  -0.0000000E+00
         4         2        59  -0.0000000E+00
         5         2        59  -0.0000000E+00
         6         2        59  -0.0000000E+00
         7         2        59  -0.0000000E+00
         8         2        59  -0.0000000E+00
         9         2        59  -0.0000000E+00
        10         2        59  -0.0000000E+00
        11         2        59  -0.0000000E+00
        12         2        59  -0.0000000E+00
        13         2        59  -0.0000000E+00
        14         2        59  -0.0000000E+00
        15         2        59  -0.0000000E+00
        16         2        59  -0.0000000E+00
        17         2        59  -0.0000000E+00
        18         2        59  -0.0000000E+00
        19         2        59  -0.0000000E+00
        20         2        59  -0.0000000E+00
        21         2        59  -0.0000000E+00
        22         2        59  -0.0000000E+00
        23         2        59  -0.0000000E+00
        24         2        59  -0.0000000E+00
        25         2        59  -0.0000000E+00
        26         2        59  -0.0000000E+00
         1        10        59  -0.0000000E+00
         2        10        59  -0.0000000E+00
         3        10        59  -0.0000000E+00
         4        10        59  -0.0000000E+00
         5        10        59  -0.0000000E+00
         6        10        59  -0.0000000E+00
         7        10        59  -0.0000000E+00
         8        10        59  -0.0000000E+00
         9        10        59  -0.0000000E+00
        10        10        59  -0.0000000E+00
        11        10        59  -0.0000000E+00
        12        10        59  -0.0000000E+00
        13        10        59  -0.0000000E+00
        14        10        59  -0.0000000E+00
        15        10        59  -0.0000000E+00
        16        10        59  -0.0000000E+00
        17        10        59  -0.0000000E+00
        18        10        59  -0.0000000E+00
        19        10        59  -0.0000000E+00
        20        10        59  -0.0000000E+00
        21        10        59  -0.0000000E+00
        22        10        59  -0.0000000E+00
        23        10        59  -0.0000000E+00
        24        10        59  -0.0000000E+00
        25        10        59  -0.0000000E+00
        26        10        59  -0.0000000E+00
       104         0 # stress period 3
         1         2        51   0.0000000E+00
         2         2        51   0.0000000E+00
         3         2        51   0.0000000E+00
         4         2        51   0.0000000E+00
         5         2        51   0.0000000E+00
         6         2        51   0.0000000E+00
         7         2        51   0.0000000E+00
         8         2        51   0.0000000E+00
         9         2        51   0.0000000E+00
        10         2        51   0.0000000E+00
        11         2        51   0.0000000E+00
        12         2        51   0.0000000E+00
        13         2        51   0.0000000E+00
        14         2        51   0.0000000E+00
        15         2        51   0.0000000E+00
        16         2        51   0.0000000E+00
        17         2        51   0.0000000E+00
        18         2        51   0.0000000E+00
        19         2        51   0.0000000E+00
        20         2        51   0.0000000E+00
        21         2        51   0.0000000E+00
        22         2        51   0.0000000E+00
        23         2        51   0.0000000E+00
        24         2        51   0.0000000E+00
        25         2        51   0.0000000E+00
        26         2        51   0.0000000E+00
         1        10        51   0.0000000E+00
         2        10        51   0.0000000E+00
         3        10        51   0.0000000E+00
         4        10        51   0.0000000E+00
         5        10        51   0.0000000E+00
         6        10        51   0.0000000E+00
         7        10        51   0.0000000E+00
         8        10        51   0.0000000E+00
         9        10        51   0.0000000E+00
        10        10        51   0.0000000E+00
        11        10        51   0.0000000E+00
        12        10        51   0.0000000E+00
        13        10        51   0.0000000E+00
        14        10        51   0.0000000E+00
        15        10        51   0.0000000E+00
        16        10        51   0.0000000E+00
        17        10        51   0.0000000E+00
        18        10        51   0.0000000E+00
        19        10        51   0.0000000E+00
        20        10        51   0.0000000E+00
        21        10        51   0.0000000E+00
        22        10        51   0.0000000E+00
        23        10        51   0.0000000E+00
        24        10        51   0.0000000E+00
        25        10        51   0.0000000E+00
        26        10        51   0.0000000E+00
         1         2        59   0.0000000E+00
         2         2        59   0.0000000E+00
         3         2        59   0.0000000E+00
         4         2        59   0.0000000E+00
         5         2        59   0.0000000E+00
         6         2        59   0.0000000E+00
         7         2        59   0.0000000E+00
         8         2        59   0.0000000E+00
         9         2        59   0.0000000E+00
        10         2        59   0.0000000E+00
        11         2        59   0.0000000E+00
        12         2        59   0.0000000E+00
        13         2        59   0.0000000E+00
        14         2        59   0.0000000E+00
        15         2        59   0.0000000E+00
        16         2        59   0.0000000E+00
        17         2        59   0.0000000E+00
        18         2        59   0.0000000E+00
        19         2        59   0.0000000E+00
        20         2        59   0.0000000E+00
        21         2        59   0.0000000E+00
        22         2        59   0.0000000E+00
        23         2        59   0.0000000E+00
        24         2        59   0.0000000E+00
        25         2        59   0.0000000E+00
        26         2        59   0.0000000E+00
         1        10        59   0.0000000E+00
         2        10        59   0.0000000E+00
         3        10        59   0.0000000E+00
         4        10        59   0.0000000E+00
         5        10        59   0.0000000E+00
         6        10        59   0.0000000E+00
         7        10        59   0.0000000E+00
         8        10        59   0.0000000E+00
         9        10        59   0.0000000E+00
        10        10        59   0.0000000E+00
        11        10        59   0.0000000E+00
        12        10        59   0.0000000E+00
        13        10        59   0.0000000E+00
        14        10        59   0.0000000E+00
        15        10        59   0.0000000E+00
        16        10        59   0.0000000E+00
        17        10        59   0.0000000E+00
        18        10        59   0.0000000E+00
        19        10        59   0.0000000E+00
        20        10        59   0.0000000E+00
        21        10        59   0.0000000E+00
        22        10        59   0.0000000E+00
        23        10        59   0.0000000E+00
        24        10        59   0.0000000E+00
        25        10        59   0.0000000E+00
        26        10        59   0.0000000E+00
       104         0 # stress period 4
         1         2        51  -0.0000000E+00
         2         2        51  -0.0000000E+00
         3         2        51  -0.0000000E+00
         4         2        51  -0.0000000E+00
         5         2        51  -0.0000000E+00
         6         2        51  -0.0000000E+00
         7         2        51  -0.0000000E+00
         8         2        51  -0.0000000E+00
         9         2        51  -0.0000000E+00
        10         2        51  -0.0000000E+00
        11         2        51  -0.0000000E+00
        12         2        51  -0.0000000E+00
        13         2        51  -0.0000000E+00
        14         2        51  -0.0000000E+00
        15         2        51  -0.0000000E+00
        16         2        51  -0.0000000E+00
        17         2        51  -0.0000000E+00
        18         2        51  -0.0000000E+00
        19         2        51  -0.0000000E+00
        20         2        51  -0.0000000E+00
        21         2        51  -0.0000000E+00
        22         2        51  -0.0000000E+00
        23         2        51  -0.0000000E+00
        24         2        51  -0.0000000E+00
        25         2        51  -0.0000000E+00
        26         2        51  -0.0000000E+00
         1        10        51  -0.0000000E+00
         2        10        51  -0.0000000E+00
         3        10        51  -0.0000000E+00
         4        10        51  -0.0000000E+00
         5        10        51  -0.0000000E+00
         6        10        51  -0.0000000E+00
         7        10        51  -0.0000000E+00
         8        10        51  -0.0000000E+00
         9        10        51  -0.0000000E+00
        10        10        51  -0.0000000E+00
        11        10        51  -0.0000000E+00
        12        10        51  -0.0000000E+00
        13        10        51  -0.0000000E+00
        14        10        51  -0.0000000E+00
        15        10        51  -0.0000000E+00
        16        10        51  -0.0000000E+00
        17        10        51  -0.0000000E+00
        18        10        51  -0.0000000E+00
        19        10        51  -0.0000000E+00
        20        10        51  -0.0000000E+00
        21        10        51  -0.0000000E+00
        22        10        51  -0.0000000E+00
        23        10        51  -0.0000000E+00
        24        10        51  -0.0000000E+00
        25        10        51  -0.0000000E+00
        26        10        51  -0.0000000E+00
         1         2        59  -0.0000000E+00
         2         2        59  -0.0000000E+00
         3         2        59  -0.0000000E+00
         4         2        59  -0.0000000E+00
         5         2        59  -0.0000000E+00
         6         2        59  -0.0000000E+00
         7         2        59  -0.0000000E+00
         8         2        59  -0.0000000E+00
         9         2        59  -0.0000000E+00
        10         2        59  -0.0000000E+00
        11         2        59  -0.0000000E+00
        12         2        59  -0.0000000E+00
        13         2        59  -0.0000000E+00
        14         2        59  -0.0000000E+00
        15         2        59  -0.0000000E+00
        16         2        59  -0.0000000E+00
        17         2        59  -0.0000000E+00
        18         2        59  -0.0000000E+00
        19         2        59  -0.0000000E+00
        20         2        59  -0.0000000E+00
        21         2        59  -0.0000000E+00
        22         2        59  -0.0000000E+00
        23         2        59  -0.0000000E+00
        24         2        59  -0.0000000E+00
        25         2        59  -0.0000000E+00
        26         2        59  -0.0000000E+00
         1        10        59  -0.0000000E+00
         2        10        59  -0.0000000E+00
         3        10        59  -0.0000000E+00
         4        10        59  -0.0000000E+00
         5        10        59  -0.0000000E+00
         6        10        59  -0.0000000E+00
         7        10        59  -0.0000000E+00
         8        10        59  -0.0000000E+00
         9        10        59  -0.0000000E+00
        10        10        59  -0.0000000E+00
        11        10        59  -0.0000000E+00
        12        10        59  -0.0000000E+00
        13        10        59  -0.0000000E+00
        14        10        59  -0.0000000E+00
        15        10        59  -0.0000000E+00
        16        10        59  -0.0000000E+00
        17        10        59  -0.0000000E+00
        18        10        59  -0.0000000E+00
        19        10        59  -0.0000000E+00
        20        10        59  -0.0000000E+00
        21        10        59  -0.0000000E+00
        22        10        59  -0.0000000E+00
        23        10        59  -0.0000000E+00
        24        10        59  -0.0000000E+00
        25        10        59  -0.0000000E+00
        26        10        59  -0.0000000E+00
       104         0 # stress period 5
         1         2        51   0.0000000E+00
         2         2        51   0.0000000E+00
         3         2        51   0.0000000E+00
         4         2        51   0.0000000E+00
         5         2        51   0.0000000E+00
         6         2        51   0.0000000E+00
         7         2        51   0.0000000E+00
         8         2        51   0.0000000E+00
         9         2        51   0.0000000E+00
        10         2        51   0.0000000E+00
        11         2        51   0.0000000E+00
        12         2        51   0.0000000E+00
        13         2        51   0.0000000E+00
        14         2        51   0.0000000E+00
        15         2        51   0.0000000E+00
        16         2        51   0.0000000E+00
        17         2        51   0.0000000E+00
        18         2        51   0.0000000E+00
        19         2        51   0.0000000E+00
        20         2        51   0.0000000E+00
        21         2        51   0.0000000E+00
        22         2        51   0.0000000E+00
        23         2        51   0.0000000E+00
        24         2        51   0.0000000E+00
        25         2        51   0.0000000E+00
        26         2        51   0.0000000E+00
         1        10        51   0.0000000E+00
         2        10        51   0.0000000E+00
         3        10        51   0.0000000E+00
         4        10        51   0.0000000E+00
         5        10        51   0.0000000E+00
         6        10        51   0.0000000E+00
         7        10        51   0.0000000E+00
         8        10        51   0.0000000E+00
         9        10        51   0.0000000E+00
        10        10        51   0.0000000E+00
        11        10        51   0.0000000E+00
        12        10        51   0.0000000E+00
        13        10        51   0.0000000E+00
        14        10        51   0.0000000E+00
        15        10        51   0.0000000E+00
        16        10        51   0.0000000E+00
        17        10        51   0.0000000E+00
        18        10        51   0.0000000E+00
        19        10        51   0.0000000E+00
        20        10        51   0.0000000E+00
        21        10        51   0.0000000E+00
        22        10        51   0.0000000E+00
        23        10        51   0.0000000E+00
        24        10        51   0.0000000E+00
        25        10        51   0.0000000E+00
        26        10        51   0.0000000E+00
         1         2        59   0.0000000E+00
         2         2        59   0.0000000E+00
         3         2        59   0.0000000E+00
         4         2        59   0.0000000E+00
         5         2        59   0.0000000E+00
         6         2        59   0.0000000E+00
         7         2        59   0.0000000E+00
         8         2        59   0.0000000E+00
         9         2        59   0.0000000E+00
        10         2        59   0.0000000E+00
        11         2        59   0.0000000E+00
        12         2        59   0.0000000E+00
        13         2        59   0.0000000E+00
        14         2        59   0.0000000E+00
        15         2        59   0.0000000E+00
        16         2        59   0.0000000E+00
        17         2        59   0.0000000E+00
        18         2        59   0.0000000E+00
        19         2        59   0.0000000E+00
        20         2        59   0.0000000E+00
        21         2        59   0.0000000E+00
        22         2        59   0.0000000E+00
        23         2        59   0.0000000E+00
        24         2        59   0.0000000E+00
        25         2        59   0.0000000E+00
        26         2        59   0.0000000E+00
         1        10        59   0.0000000E+00
         2        10        59   0.0000000E+00
         3        10        59   0.0000000E+00
         4        10        59   0.0000000E+00
         5        10        59   0.0000000E+00
         6        10        59   0.0000000E+00
         7        10        59   0.0000000E+00
         8        10        59   0.0000000E+00
         9        10        59   0.0000000E+00
        10        10        59   0.0000000E+00
        11        10        59   0.0000000E+00
        12        10        59   0.0000000E+00
        13        10        59   0.0000000E+00
        14        10        59   0.0000000E+00
        15        10        59   0.0000000E+00
        16        10        59   0.0000000E+00
        17        10        59   0.0000000E+00
        18        10        59   0.0000000E+00
        19        10        59   0.0000000E+00
        20        10        59   0.0000000E+00
        21        10        59   0.0000000E+00
        22        10        59   0.0000000E+00
        23        10        59   0.0000000E+00
        24        10        59   0.0000000E+00
        25        10        59   0.0000000E+00
        26        10        59   0.0000000E+00
       104         0 # stress period 6
         1         2        51  -0.0000000E+00
         2         2        51  -0.0000000E+00
         3         2        51  -0.0000000E+00
         4         2        51  -0.0000000E+00
         5         2        51  -0.0000000E+00
         6         2        51  -0.0000000E+00
         7         2        51  -0.0000000E+00
         8         2        51  -0.0000000E+00
         9         2        51  -0.0000000E+00
        10         2        51  -0.0000000E+00
        11         2        51  -0.0000000E+00
        12         2        51  -0.0000000E+00
        13         2        51  -0.0000000E+00
        14         2        51  -0.0000000E+00
        15         2        51  -0.0000000E+00
        16         2        51  -0.0000000E+00
        17         2        51  -0.0000000E+00
        18         2        51  -0.0000000E+00
        19         2        51  -0.0000000E+00
        20         2        51  -0.0000000E+00
        21         2        51  -0.0000000E+00
        22         2        51  -0.0000000E+00
        23         2        51  -0.0000000E+00
        24         2        51  -0.0000000E+00
        25         2        51  -0.0000000E+00
        26         2        51  -0.0000000E+00
         1        10        51  -0.0000000E+00
         2        10        51  -0.0000000E+00
         3        10        51  -0.0000000E+00
         4        10        51  -0.0000000E+00
         5        10        51  -0.0000000E+00
         6        10        51  -0.0000000E+00
         7        10        51  -0.0000000E+00
         8        10        51  -0.0000000E+00
         9        10        51  -0.0000000E+00
        10        10        51  -0.0000000E+00
        11        10        51  -0.0000000E+00
        12        10        51  -0.0000000E+00
        13        10        51  -0.0000000E+00
        14        10        51  -0.0000000E+00
        15        10        51  -0.0000000E+00
        16        10        51  -0.0000000E+00
        17        10        51  -0.0000000E+00
        18        10        51  -0.0000000E+00
        19        10        51  -0.0000000E+00
        20        10        51  -0.0000000E+00
        21        10        51  -0.0000000E+00
        22        10        51  -0.0000000E+00
        23        10        51  -0.0000000E+00
        24        10        51  -0.0000000E+00
        25        10        51  -0.0000000E+00
        26        10        51  -0.0000000E+00
         1         2        59  -0.0000000E+00
         2         2        59  -0.0000000E+00
         3         2        59  -0.0000000E+00
         4         2        59  -0.0000000E+00
         5         2        59  -0.0000000E+00
         6         2        59  -0.0000000E+00
         7         2        59  -0.0000000E+00
         8         2        59  -0.0000000E+00
         9         2        59  -0.0000000E+00
        10         2        59  -0.0000000E+00
        11         2        59  -0.0000000E+00
        12         2        59  -0.0000000E+00
        13         2        59  -0.0000000E+00
        14         2        59  -0.0000000E+00
        15         2        59  -0.0000000E+00
        16         2        59  -0.0000000E+00
        17         2        59  -0.0000000E+00
        18         2        59  -0.0000000E+00
        19         2        59  -0.0000000E+00
        20         2        59  -0.0000000E+00
        21         2        59  -0.0000000E+00
        22         2        59  -0.0000000E+00
        23         2        59  -0.0000000E+00
        24         2        59  -0.0000000E+00
        25         2        59  -0.0000000E+00
        26         2        59  -0.0000000E+00
         1        10        59  -0.0000000E+00
         2        10        59  -0.0000000E+00
         3        10        59  -0.0000000E+00
         4        10        59  -0.0000000E+00
         5        10        59  -0.0000000E+00
         6        10        59  -0.0000000E+00
         7        10        59  -0.0000000E+00
         8        10        59  -0.0000000E+00
         9        10        59  -0.0000000E+00
        10        10        59  -0.0000000E+00
        11        10        59  -0.0000000E+00
        12        10        59  -0.0000000E+00
        13        10        59  -0.0000000E+00
        14        10        59  -0.0000000E+00
        15        10        59  -0.0000000E+00
        16        10        59  -0.0000000E+00
        17        10        59  -0.0000000E+00
        18        10        59  -0.0000000E+00
        19        10        59  -0.0000000E+00
        20        10        59  -0.0000000E+00
        21        10        59  -0.0000000E+00
        22        10        59  -0.0000000E+00
        23        10        59  -0.0000000E+00
        24        10        59  -0.0000000E+00
        25        10        59  -0.0000000E+00
        26        10        59  -0.0000000E+00
       104         0 # stress period 7
         1         2        51   0.0000000E+00
         2         2        51   0.0000000E+00
         3         2        51   0.0000000E+00
         4         2        51   0.0000000E+00
         5         2        51   0.0000000E+00
         6         2        51   0.0000000E+00