# DIS package for  SEAWAT, generated by Flopy.
        26        20       100        40         4         2
  0  0  0  0  0  0  0  0  0  0  0  0  0  0  0  0  0  0  0  0  0  0  0  0  0  0
         0        30                           -1 #delr
         0        30                           -1 #delc
         0       3.3                           -1 #model_top
         0      -0.7                           -1 #botm layer 1
         0     -3.74                           -1 #botm layer 2
         0     -6.78                           -1 #botm layer 3
         0     -9.82                           -1 #botm layer 4
         0    -12.86                           -1 #botm layer 5
         0     -15.9                           -1 #botm layer 6
         0    -18.94                           -1 #botm layer 7
         0    -21.98                           -1 #botm layer 8
         0    -25.02                           -1 #botm layer 9
         0    -28.06                           -1 #botm layer 10
         0     -31.1                           -1 #botm layer 11
         0    -34.14                           -1 #botm layer 12
         0    -37.18                           -1 #botm layer 13
         0    -40.22                           -1 #botm layer 14
         0    -43.26                           -1 #botm layer 15
         0     -46.3                           -1 #botm layer 16
         0    -49.34                           -1 #botm layer 17
         0    -52.38                           -1 #botm layer 18
         0    -55.42                           -1 #botm layer 19
         0    -58.46                           -1 #botm layer 20
         0     -61.5                           -1 #botm layer 21
         0    -64.54                           -1 #botm layer 22
         0    -67.58                           -1 #botm layer 23
         0    -70.62                           -1 #botm layer 24
         0    -73.66                           -1 #botm layer 25
         0     -76.7                           -1 #botm layer 26
    180.000000             1  1.800000  TR 
    180.000000             1  1.800000  TR 
    180.000000             1  1.800000  TR 
    180.000000             1  1.800000  TR 
    180.000000             1  1.800000  TR 
    180.000000             1  1.800000  TR 
    180.000000             1  1.800000  TR 
    180.000000             1  1.800000  TR 
    180.000000             1  1.800000  TR 
    180.000000             1  1.800000  TR 
    180.000000             1  1.800000  TR 
    180.000000             1  1.800000  TR 
    180.000000             1  1.800000  TR 
    180.000000             1  1.800000  TR 
    180.000000             1  1.800000  TR 
    180.000000             1  1.800000  TR 
    180.000000             1  1.800000  TR 
    180.000000             1  1.800000  TR 
    180.000000             1  1.800000  TR 
    180.000000             1  1.800000  TR 
    180.000000             1  1.800000  TR 
    180.000000             1  1.800000  TR 
    180.000000             1  1.800000  TR 
    180.000000             1  1.800000  TR 
    180.000000             1  1.800000  TR 
    180.000000             1  1.800000  TR 
    180.000000             1  1.800000  TR 
    180.000000             1  1.800000  TR 
    180.000000             1  1.800000  TR 
    180.000000             1  1.800000  TR 
    180.000000             1  1.800000  TR 
    180.000000             1  1.800000  TR 
    180.000000             1  1.800000  TR 
    180.000000             1  1.800000  TR 
    180.000000             1  1.800000  TR 
    180.000000             1  1.800000  TR 
    180.000000             1  1.800000  TR 
    180.000000             1  1.800000  TR 
    180.000000             1  1.800000  TR 
    180.000000             1  1.800000  TR 
