# GHB package for  SEAWAT, generated by Flopy.
      1040         0
      1040         0 # stress period 1
         1         1       100   0.0000000E+00   8.0000000E+02
         1         2       100   0.0000000E+00   8.0000000E+02
         1         3       100   0.0000000E+00   8.0000000E+02
         1         4       100   0.0000000E+00   8.0000000E+02
         1         5       100   0.0000000E+00   8.0000000E+02
         1         6       100   0.0000000E+00   8.0000000E+02
         1         7       100   0.0000000E+00   8.0000000E+02
         1         8       100   0.0000000E+00   8.0000000E+02
         1         9       100   0.0000000E+00   8.0000000E+02
         1        10       100   0.0000000E+00   8.0000000E+02
         1        11       100   0.0000000E+00   8.0000000E+02
         1        12       100   0.0000000E+00   8.0000000E+02
         1        13       100   0.0000000E+00   8.0000000E+02
         1        14       100   0.0000000E+00   8.0000000E+02
         1        15       100   0.0000000E+00   8.0000000E+02
         1        16       100   0.0000000E+00   8.0000000E+02
         1        17       100   0.0000000E+00   8.0000000E+02
         1        18       100   0.0000000E+00   8.0000000E+02
         1        19       100   0.0000000E+00   8.0000000E+02
         1        20       100   0.0000000E+00   8.0000000E+02
         2         1       100   0.0000000E+00   6.0800000E+02
         2         2       100   0.0000000E+00   6.0800000E+02
         2         3       100   0.0000000E+00   6.0800000E+02
         2         4       100   0.0000000E+00   6.0800000E+02
         2         5       100   0.0000000E+00   6.0800000E+02
         2         6       100   0.0000000E+00   6.0800000E+02
         2         7       100   0.0000000E+00   6.0800000E+02
         2         8       100   0.0000000E+00   6.0800000E+02
         2         9       100   0.0000000E+00   6.0800000E+02
         2        10       100   0.0000000E+00   6.0800000E+02
         2        11       100   0.0000000E+00   6.0800000E+02
         2        12       100   0.0000000E+00   6.0800000E+02
         2        13       100   0.0000000E+00   6.0800000E+02
         2        14       100   0.0000000E+00   6.0800000E+02
         2        15       100   0.0000000E+00   6.0800000E+02
         2        16       100   0.0000000E+00   6.0800000E+02
         2        17       100   0.0000000E+00   6.0800000E+02
         2        18       100   0.0000000E+00   6.0800000E+02
         2        19       100   0.0000000E+00   6.0800000E+02
         2        20       100   0.0000000E+00   6.0800000E+02
         3         1       100   0.0000000E+00   6.0800000E+02
         3         2       100   0.0000000E+00   6.0800000E+02
         3         3       100   0.0000000E+00   6.0800000E+02
         3         4       100   0.0000000E+00   6.0800000E+02
         3         5       100   0.0000000E+00   6.0800000E+02
         3         6       100   0.0000000E+00   6.0800000E+02
         3         7       100   0.0000000E+00   6.0800000E+02
         3         8       100   0.0000000E+00   6.0800000E+02
         3         9       100   0.0000000E+00   6.0800000E+02
         3        10       100   0.0000000E+00   6.0800000E+02
         3        11       100   0.0000000E+00   6.0800000E+02
         3        12       100   0.0000000E+00   6.0800000E+02
         3        13       100   0.0000000E+00   6.0800000E+02
         3        14       100   0.0000000E+00   6.0800000E+02
         3        15       100   0.0000000E+00   6.0800000E+02
         3        16       100   0.0000000E+00   6.0800000E+02
         3        17       100   0.0000000E+00   6.0800000E+02
         3        18       100   0.0000000E+00   6.0800000E+02
         3        19       100   0.0000000E+00   6.0800000E+02
         3        20       100   0.0000000E+00   6.0800000E+02
         4         1       100   0.0000000E+00   6.0800000E+02
         4         2       100   0.0000000E+00   6.0800000E+02
         4         3       100   0.0000000E+00   6.0800000E+02
         4         4       100   0.0000000E+00   6.0800000E+02
         4         5       100   0.0000000E+00   6.0800000E+02
         4         6       100   0.0000000E+00   6.0800000E+02
         4         7       100   0.0000000E+00   6.0800000E+02
         4         8       100   0.0000000E+00   6.0800000E+02
         4         9       100   0.0000000E+00   6.0800000E+02
         4        10       100   0.0000000E+00   6.0800000E+02
         4        11       100   0.0000000E+00   6.0800000E+02
         4        12       100   0.0000000E+00   6.0800000E+02
         4        13       100   0.0000000E+00   6.0800000E+02
         4        14       100   0.0000000E+00   6.0800000E+02
         4        15       100   0.0000000E+00   6.0800000E+02
         4        16       100   0.0000000E+00   6.0800000E+02
         4        17       100   0.0000000E+00   6.0800000E+02
         4        18       100   0.0000000E+00   6.0800000E+02
         4        19       100   0.0000000E+00   6.0800000E+02
         4        20       100   0.0000000E+00   6.0800000E+02
         5         1       100   0.0000000E+00   6.0800000E+02
         5         2       100   0.0000000E+00   6.0800000E+02
         5         3       100   0.0000000E+00   6.0800000E+02
         5         4       100   0.0000000E+00   6.0800000E+02
         5         5       100   0.0000000E+00   6.0800000E+02
         5         6       100   0.0000000E+00   6.0800000E+02
         5         7       100   0.0000000E+00   6.0800000E+02
         5         8       100   0.0000000E+00   6.0800000E+02
         5         9       100   0.0000000E+00   6.0800000E+02
         5        10       100   0.0000000E+00   6.0800000E+02
         5        11       100   0.0000000E+00   6.0800000E+02
         5        12       100   0.0000000E+00   6.0800000E+02
         5        13       100   0.0000000E+00   6.0800000E+02
         5        14       100   0.0000000E+00   6.0800000E+02
         5        15       100   0.0000000E+00   6.0800000E+02
         5        16       100   0.0000000E+00   6.0800000E+02
         5        17       100   0.0000000E+00   6.0800000E+02
         5        18       100   0.0000000E+00   6.0800000E+02
         5        19       100   0.0000000E+00   6.0800000E+02
         5        20       100   0.0000000E+00   6.0800000E+02
         6         1       100   0.0000000E+00   6.0800000E+02
         6         2       100   0.0000000E+00   6.0800000E+02
         6         3       100   0.0000000E+00   6.0800000E+02
         6         4       100   0.0000000E+00   6.0800000E+02
         6         5       100   0.0000000E+00   6.0800000E+02
         6         6       100   0.0000000E+00   6.0800000E+02
         6         7       100   0.0000000E+00   6.0800000E+02
         6         8       100   0.0000000E+00   6.0800000E+02
         6         9       100   0.0000000E+00   6.0800000E+02
         6        10       100   0.0000000E+00   6.0800000E+02
         6        11       100   0.0000000E+00   6.0800000E+02
         6        12       100   0.0000000E+00   6.0800000E+02
         6        13       100   0.0000000E+00   6.0800000E+02
         6        14       100   0.0000000E+00   6.0800000E+02
         6        15       100   0.0000000E+00   6.0800000E+02
         6        16       100   0.0000000E+00   6.0800000E+02
         6        17       100   0.0000000E+00   6.0800000E+02
         6        18       100   0.0000000E+00   6.0800000E+02
         6        19       100   0.0000000E+00   6.0800000E+02
         6        20       100   0.0000000E+00   6.0800000E+02
         7         1       100   0.0000000E+00   6.0800000E+02
         7         2       100   0.0000000E+00   6.0800000E+02
         7         3       100   0.0000000E+00   6.0800000E+02
         7         4       100   0.0000000E+00   6.0800000E+02
         7         5       100   0.0000000E+00   6.0800000E+02
         7         6       100   0.0000000E+00   6.0800000E+02
         7         7       100   0.0000000E+00   6.0800000E+02
         7         8       100   0.0000000E+00   6.0800000E+02
         7         9       100   0.0000000E+00   6.0800000E+02
         7        10       100   0.0000000E+00   6.0800000E+02
         7        11       100   0.0000000E+00   6.0800000E+02
         7        12       100   0.0000000E+00   6.0800000E+02
         7        13       100   0.0000000E+00   6.0800000E+02
         7        14       100   0.0000000E+00   6.0800000E+02
         7        15       100   0.0000000E+00   6.0800000E+02
         7        16       100   0.0000000E+00   6.0800000E+02
         7        17       100   0.0000000E+00   6.0800000E+02
         7        18       100   0.0000000E+00   6.0800000E+02
         7        19       100   0.0000000E+00   6.0800000E+02
         7        20       100   0.0000000E+00   6.0800000E+02
         8         1       100   0.0000000E+00   6.0800000E+02
         8         2       100   0.0000000E+00   6.0800000E+02
         8         3       100   0.0000000E+00   6.0800000E+02
         8         4       100   0.0000000E+00   6.0800000E+02
         8         5       100   0.0000000E+00   6.0800000E+02
         8         6       100   0.0000000E+00   6.0800000E+02
         8         7       100   0.0000000E+00   6.0800000E+02
         8         8       100   0.0000000E+00   6.0800000E+02
         8         9       100   0.0000000E+00   6.0800000E+02
         8        10       100   0.0000000E+00   6.0800000E+02
         8        11       100   0.0000000E+00   6.0800000E+02
         8        12       100   0.0000000E+00   6.0800000E+02
         8        13       100   0.0000000E+00   6.0800000E+02
         8        14       100   0.0000000E+00   6.0800000E+02
         8        15       100   0.0000000E+00   6.0800000E+02
         8        16       100   0.0000000E+00   6.0800000E+02
         8        17       100   0.0000000E+00   6.0800000E+02
         8        18       100   0.0000000E+00   6.0800000E+02
         8        19       100   0.0000000E+00   6.0800000E+02
         8        20       100   0.0000000E+00   6.0800000E+02
         9         1       100   0.0000000E+00   6.0800000E+02
         9         2       100   0.0000000E+00   6.0800000E+02
         9         3       100   0.0000000E+00   6.0800000E+02
         9         4       100   0.0000000E+00   6.0800000E+02
         9         5       100   0.0000000E+00   6.0800000E+02
         9         6       100   0.0000000E+00   6.0800000E+02
         9         7       100   0.0000000E+00   6.0800000E+02
         9         8       100   0.0000000E+00   6.0800000E+02
         9         9       100   0.0000000E+00   6.0800000E+02
         9        10       100   0.0000000E+00   6.0800000E+02
         9        11       100   0.0000000E+00   6.0800000E+02
         9        12       100   0.0000000E+00   6.0800000E+02
         9        13       100   0.0000000E+00   6.0800000E+02
         9        14       100   0.0000000E+00   6.0800000E+02
         9        15       100   0.0000000E+00   6.0800000E+02
         9        16       100   0.0000000E+00   6.0800000E+02
         9        17       100   0.0000000E+00   6.0800000E+02
         9        18       100   0.0000000E+00   6.0800000E+02
         9        19       100   0.0000000E+00   6.0800000E+02
         9        20       100   0.0000000E+00   6.0800000E+02
        10         1       100   0.0000000E+00   6.0800000E+02
        10         2       100   0.0000000E+00   6.0800000E+02
        10         3       100   0.0000000E+00   6.0800000E+02
        10         4       100   0.0000000E+00   6.0800000E+02
        10         5       100   0.0000000E+00   6.0800000E+02
        10         6       100   0.0000000E+00   6.0800000E+02
        10         7       100   0.0000000E+00   6.0800000E+02
        10         8       100   0.0000000E+00   6.0800000E+02
        10         9       100   0.0000000E+00   6.0800000E+02
        10        10       100   0.0000000E+00   6.0800000E+02
        10        11       100   0.0000000E+00   6.0800000E+02
        10        12       100   0.0000000E+00   6.0800000E+02
        10        13       100   0.0000000E+00   6.0800000E+02
        10        14       100   0.0000000E+00   6.0800000E+02
        10        15       100   0.0000000E+00   6.0800000E+02
        10        16       100   0.0000000E+00   6.0800000E+02
        10        17       100   0.0000000E+00   6.0800000E+02
        10        18       100   0.0000000E+00   6.0800000E+02
        10        19       100   0.0000000E+00   6.0800000E+02
        10        20       100   0.0000000E+00   6.0800000E+02
        11         1       100   0.0000000E+00   6.0800000E+02
        11         2       100   0.0000000E+00   6.0800000E+02
        11         3       100   0.0000000E+00   6.0800000E+02
        11         4       100   0.0000000E+00   6.0800000E+02
        11         5       100   0.0000000E+00   6.0800000E+02
        11         6       100   0.0000000E+00   6.0800000E+02
        11         7       100   0.0000000E+00   6.0800000E+02
        11         8       100   0.0000000E+00   6.0800000E+02
        11         9       100   0.0000000E+00   6.0800000E+02
        11        10       100   0.0000000E+00   6.0800000E+02
        11        11       100   0.0000000E+00   6.0800000E+02
        11        12       100   0.0000000E+00   6.0800000E+02
        11        13       100   0.0000000E+00   6.0800000E+02
        11        14       100   0.0000000E+00   6.0800000E+02
        11        15       100   0.0000000E+00   6.0800000E+02
        11        16       100   0.0000000E+00   6.0800000E+02
        11        17       100   0.0000000E+00   6.0800000E+02
        11        18       100   0.0000000E+00   6.0800000E+02
        11        19       100   0.0000000E+00   6.0800000E+02
        11        20       100   0.0000000E+00   6.0800000E+02
        12         1       100   0.0000000E+00   6.0800000E+02
        12         2       100   0.0000000E+00   6.0800000E+02
        12         3       100   0.0000000E+00   6.0800000E+02
        12         4       100   0.0000000E+00   6.0800000E+02
        12         5       100   0.0000000E+00   6.0800000E+02
        12         6       100   0.0000000E+00   6.0800000E+02
        12         7       100   0.0000000E+00   6.0800000E+02
        12         8       100   0.0000000E+00   6.0800000E+02
        12         9       100   0.0000000E+00   6.0800000E+02
        12        10       100   0.0000000E+00   6.0800000E+02
        12        11       100   0.0000000E+00   6.0800000E+02
        12        12       100   0.0000000E+00   6.0800000E+02
        12        13       100   0.0000000E+00   6.0800000E+02
        12        14       100   0.0000000E+00   6.0800000E+02
        12        15       100   0.0000000E+00   6.0800000E+02
        12        16       100   0.0000000E+00   6.0800000E+02
        12        17       100   0.0000000E+00   6.0800000E+02
        12        18       100   0.0000000E+00   6.0800000E+02
        12        19       100   0.0000000E+00   6.0800000E+02
        12        20       100   0.0000000E+00   6.0800000E+02
        13         1       100   0.0000000E+00   6.0800000E+02
        13         2       100   0.0000000E+00   6.0800000E+02
        13         3       100   0.0000000E+00   6.0800000E+02
        13         4       100   0.0000000E+00   6.0800000E+02
        13         5       100   0.0000000E+00   6.0800000E+02
        13         6       100   0.0000000E+00   6.0800000E+02
        13         7       100   0.0000000E+00   6.0800000E+02
        13         8       100   0.0000000E+00   6.0800000E+02
        13         9       100   0.0000000E+00   6.0800000E+02
        13        10       100   0.0000000E+00   6.0800000E+02
        13        11       100   0.0000000E+00   6.0800000E+02
        13        12       100   0.0000000E+00   6.0800000E+02
        13        13       100   0.0000000E+00   6.0800000E+02
        13        14       100   0.0000000E+00   6.0800000E+02
        13        15       100   0.0000000E+00   6.0800000E+02
        13        16       100   0.0000000E+00   6.0800000E+02
        13        17       100   0.0000000E+00   6.0800000E+02
        13        18       100   0.0000000E+00   6.0800000E+02
        13        19       100   0.0000000E+00   6.0800000E+02
        13        20       100   0.0000000E+00   6.0800000E+02
        14         1       100   0.0000000E+00   6.0800000E+02
        14         2       100   0.0000000E+00   6.0800000E+02
        14         3       100   0.0000000E+00   6.0800000E+02
        14         4       100   0.0000000E+00   6.0800000E+02
        14         5       100   0.0000000E+00   6.0800000E+02
        14         6       100   0.0000000E+00   6.0800000E+02
        14         7       100   0.0000000E+00   6.0800000E+02
        14         8       100   0.0000000E+00   6.0800000E+02
        14         9       100   0.0000000E+00   6.0800000E+02
        14        10       100   0.0000000E+00   6.0800000E+02
        14        11       100   0.0000000E+00   6.0800000E+02
        14        12       100   0.0000000E+00   6.0800000E+02
        14        13       100   0.0000000E+00   6.0800000E+02
        14        14       100   0.0000000E+00   6.0800000E+02
        14        15       100   0.0000000E+00   6.0800000E+02
        14        16       100   0.0000000E+00   6.0800000E+02
        14        17       100   0.0000000E+00   6.0800000E+02
        14        18       100   0.0000000E+00   6.0800000E+02
        14        19       100   0.0000000E+00   6.0800000E+02
        14        20       100   0.0000000E+00   6.0800000E+02
        15         1       100   0.0000000E+00   6.0800000E+02
        15         2       100   0.0000000E+00   6.0800000E+02
        15         3       100   0.0000000E+00   6.0800000E+02
        15         4       100   0.0000000E+00   6.0800000E+02
        15         5       100   0.0000000E+00   6.0800000E+02
        15         6       100   0.0000000E+00   6.0800000E+02
        15         7       100   0.0000000E+00   6.0800000E+02
        15         8       100   0.0000000E+00   6.0800000E+02
        15         9       100   0.0000000E+00   6.0800000E+02
        15        10       100   0.0000000E+00   6.0800000E+02
        15        11       100   0.0000000E+00   6.0800000E+02
        15        12       100   0.0000000E+00   6.0800000E+02
        15        13       100   0.0000000E+00   6.0800000E+02
        15        14       100   0.0000000E+00   6.0800000E+02
        15        15       100   0.0000000E+00   6.0800000E+02
        15        16       100   0.0000000E+00   6.0800000E+02
        15        17       100   0.0000000E+00   6.0800000E+02
        15        18       100   0.0000000E+00   6.0800000E+02
        15        19       100   0.0000000E+00   6.0800000E+02
        15        20       100   0.0000000E+00   6.0800000E+02
        16         1       100   0.0000000E+00   6.0800000E+02
        16         2       100   0.0000000E+00   6.0800000E+02
        16         3       100   0.0000000E+00   6.0800000E+02
        16         4       100   0.0000000E+00   6.0800000E+02
        16         5       100   0.0000000E+00   6.0800000E+02
        16         6       100   0.0000000E+00   6.0800000E+02
        16         7       100   0.0000000E+00   6.0800000E+02
        16         8       100   0.0000000E+00   6.0800000E+02
        16         9       100   0.0000000E+00   6.0800000E+02
        16        10       100   0.0000000E+00   6.0800000E+02
        16        11       100   0.0000000E+00   6.0800000E+02
        16        12       100   0.0000000E+00   6.0800000E+02
        16        13       100   0.0000000E+00   6.0800000E+02
        16        14       100   0.0000000E+00   6.0800000E+02
        16        15       100   0.0000000E+00   6.0800000E+02
        16        16       100   0.0000000E+00   6.0800000E+02
        16        17       100   0.0000000E+00   6.0800000E+02
        16        18       100   0.0000000E+00   6.0800000E+02
        16        19       100   0.0000000E+00   6.0800000E+02
        16        20       100   0.0000000E+00   6.0800000E+02
        17         1       100   0.0000000E+00   6.0800000E+02
        17         2       100   0.0000000E+00   6.0800000E+02
        17         3       100   0.0000000E+00   6.0800000E+02
        17         4       100   0.0000000E+00   6.0800000E+02
        17         5       100   0.0000000E+00   6.0800000E+02
        17         6       100   0.0000000E+00   6.0800000E+02
        17         7       100   0.0000000E+00   6.0800000E+02
        17         8       100   0.0000000E+00   6.0800000E+02
        17         9       100   0.0000000E+00   6.0800000E+02
        17        10       100   0.0000000E+00   6.0800000E+02
        17        11       100   0.0000000E+00   6.0800000E+02
        17        12       100   0.0000000E+00   6.0800000E+02
        17        13       100   0.0000000E+00   6.0800000E+02
        17        14       100   0.0000000E+00   6.0800000E+02
        17        15       100   0.0000000E+00   6.0800000E+02
        17        16       100   0.0000000E+00   6.0800000E+02
        17        17       100   0.0000000E+00   6.0800000E+02
        17        18       100   0.0000000E+00   6.0800000E+02
        17        19       100   0.0000000E+00   6.0800000E+02
        17        20       100   0.0000000E+00   6.0800000E+02
        18         1       100   0.0000000E+00   6.0800000E+02
        18         2       100   0.0000000E+00   6.0800000E+02
        18         3       100   0.0000000E+00   6.0800000E+02
        18         4       100   0.0000000E+00   6.0800000E+02
        18         5       100   0.0000000E+00   6.0800000E+02
        18         6       100   0.0000000E+00   6.0800000E+02
        18         7       100   0.0000000E+00   6.0800000E+02
        18         8       100   0.0000000E+00   6.0800000E+02
        18         9       100   0.0000000E+00   6.0800000E+02
        18        10       100   0.0000000E+00   6.0800000E+02
        18        11       100   0.0000000E+00   6.0800000E+02
        18        12       100   0.0000000E+00   6.0800000E+02
        18        13       100   0.0000000E+00   6.0800000E+02
        18        14       100   0.0000000E+00   6.0800000E+02
        18        15       100   0.0000000E+00   6.0800000E+02
        18        16       100   0.0000000E+00   6.0800000E+02
        18        17       100   0.0000000E+00   6.0800000E+02
        18        18       100   0.0000000E+00   6.0800000E+02
        18        19       100   0.0000000E+00   6.0800000E+02
        18        20       100   0.0000000E+00   6.0800000E+02
        19         1       100   0.0000000E+00   6.0800000E+02
        19         2       100   0.0000000E+00   6.0800000E+02
        19         3       100   0.0000000E+00   6.0800000E+02
        19         4       100   0.0000000E+00   6.0800000E+02
        19         5       100   0.0000000E+00   6.0800000E+02
        19         6       100   0.0000000E+00   6.0800000E+02
        19         7       100   0.0000000E+00   6.0800000E+02
        19         8       100   0.0000000E+00   6.0800000E+02
        19         9       100   0.0000000E+00   6.0800000E+02
        19        10       100   0.0000000E+00   6.0800000E+02
        19        11       100   0.0000000E+00   6.0800000E+02
        19        12       100   0.0000000E+00   6.0800000E+02
        19        13       100   0.0000000E+00   6.0800000E+02
        19        14       100   0.0000000E+00   6.0800000E+02
        19        15       100   0.0000000E+00   6.0800000E+02
        19        16       100   0.0000000E+00   6.0800000E+02
        19        17       100   0.0000000E+00   6.0800000E+02
        19        18       100   0.0000000E+00   6.0800000E+02
        19        19       100   0.0000000E+00   6.0800000E+02
        19        20       100   0.0000000E+00   6.0800000E+02
        20         1       100   0.0000000E+00   6.0800000E+02
        20         2       100   0.0000000E+00   6.0800000E+02
        20         3       100   0.0000000E+00   6.0800000E+02
        20         4       100   0.0000000E+00   6.0800000E+02
        20         5       100   0.0000000E+00   6.0800000E+02
        20         6       100   0.0000000E+00   6.0800000E+02
        20         7       100   0.0000000E+00   6.0800000E+02
        20         8       100   0.0000000E+00   6.0800000E+02
        20         9       100   0.0000000E+00   6.0800000E+02
        20        10       100   0.0000000E+00   6.0800000E+02
        20        11       100   0.0000000E+00   6.0800000E+02
        20        12       100   0.0000000E+00   6.0800000E+02
        20        13       100   0.0000000E+00   6.0800000E+02
        20        14       100   0.0000000E+00   6.0800000E+02
        20        15       100   0.0000000E+00   6.0800000E+02
        20        16       100   0.0000000E+00   6.0800000E+02
        20        17       100   0.0000000E+00   6.0800000E+02
        20        18       100   0.0000000E+00   6.0800000E+02
        20        19       100   0.0000000E+00   6.0800000E+02
        20        20       100   0.0000000E+00   6.0800000E+02
        21         1       100   0.0000000E+00   6.0800000E+02
        21         2       100   0.0000000E+00   6.0800000E+02
        21         3       100   0.0000000E+00   6.0800000E+02
        21         4       100   0.0000000E+00   6.0800000E+02
        21         5       100   0.0000000E+00   6.0800000E+02
        21         6       100   0.0000000E+00   6.0800000E+02
        21         7       100   0.0000000E+00   6.0800000E+02
        21         8       100   0.0000000E+00   6.0800000E+02
        21         9       100   0.0000000E+00   6.0800000E+02
        21        10       100   0.0000000E+00   6.0800000E+02
        21        11       100   0.0000000E+00   6.0800000E+02
        21        12       100   0.0000000E+00   6.0800000E+02
        21        13       100   0.0000000E+00   6.0800000E+02
        21        14       100   0.0000000E+00   6.0800000E+02
        21        15       100   0.0000000E+00   6.0800000E+02
        21        16       100   0.0000000E+00   6.0800000E+02
        21        17       100   0.0000000E+00   6.0800000E+02
        21        18       100   0.0000000E+00   6.0800000E+02
        21        19       100   0.0000000E+00   6.0800000E+02
        21        20       100   0.0000000E+00   6.0800000E+02
        22         1       100   0.0000000E+00   6.0800000E+02
        22         2       100   0.0000000E+00   6.0800000E+02
        22         3       100   0.0000000E+00   6.0800000E+02
        22         4       100   0.0000000E+00   6.0800000E+02
        22         5       100   0.0000000E+00   6.0800000E+02
        22         6       100   0.0000000E+00   6.0800000E+02
        22         7       100   0.0000000E+00   6.0800000E+02
        22         8       100   0.0000000E+00   6.0800000E+02
        22         9       100   0.0000000E+00   6.0800000E+02
        22        10       100   0.0000000E+00   6.0800000E+02
        22        11       100   0.0000000E+00   6.0800000E+02
        22        12       100   0.0000000E+00   6.0800000E+02
        22        13       100   0.0000000E+00   6.0800000E+02
        22        14       100   0.0000000E+00   6.0800000E+02
        22        15       100   0.0000000E+00   6.0800000E+02
        22        16       100   0.0000000E+00   6.0800000E+02
        22        17       100   0.0000000E+00   6.0800000E+02
        22        18       100   0.0000000E+00   6.0800000E+02
        22        19       100   0.0000000E+00   6.0800000E+02
        22        20       100   0.0000000E+00   6.0800000E+02
        23         1       100   0.0000000E+00   6.0800000E+02
        23         2       100   0.0000000E+00   6.0800000E+02
        23         3       100   0.0000000E+00   6.0800000E+02
        23         4       100   0.0000000E+00   6.0800000E+02
        23         5       100   0.0000000E+00   6.0800000E+02
        23         6       100   0.0000000E+00   6.0800000E+02
        23         7       100   0.0000000E+00   6.0800000E+02
        23         8       100   0.0000000E+00   6.0800000E+02
        23         9       100   0.0000000E+00   6.0800000E+02
        23        10       100   0.0000000E+00   6.0800000E+02
        23        11       100   0.0000000E+00   6.0800000E+02
        23        12       100   0.0000000E+00   6.0800000E+02
        23        13       100   0.0000000E+00   6.0800000E+02
        23        14       100   0.0000000E+00   6.0800000E+02
        23        15       100   0.0000000E+00   6.0800000E+02
        23        16       100   0.0000000E+00   6.0800000E+02
        23        17       100   0.0000000E+00   6.0800000E+02
        23        18       100   0.0000000E+00   6.0800000E+02
        23        19       100   0.0000000E+00   6.0800000E+02
        23        20       100   0.0000000E+00   6.0800000E+02
        24         1       100   0.0000000E+00   6.0800000E+02
        24         2       100   0.0000000E+00   6.0800000E+02
        24         3       100   0.0000000E+00   6.0800000E+02
        24         4       100   0.0000000E+00   6.0800000E+02
        24         5       100   0.0000000E+00   6.0800000E+02
        24         6       100   0.0000000E+00   6.0800000E+02
        24         7       100   0.0000000E+00   6.0800000E+02
        24         8       100   0.0000000E+00   6.0800000E+02
        24         9       100   0.0000000E+00   6.0800000E+02
        24        10       100   0.0000000E+00   6.0800000E+02
        24        11       100   0.0000000E+00   6.0800000E+02
        24        12       100   0.0000000E+00   6.0800000E+02
        24        13       100   0.0000000E+00   6.0800000E+02
        24        14       100   0.0000000E+00   6.0800000E+02